* Model type         :
*   MOSFET           : HSPICE Level 49(BSIM3V3.24)
*   1/f MOSFET noise : HSPICE NLEV  3
*   Junction Diode   : HSPICE Level 3
*   Vertical BJT     : HSPICE Level 1
* 
* Model name         :
*   MOSFET           :
*        *--------------------------------------* 
*        |     MOSFET type    |  1.8V  |  3.3V  | 
*        |======================================| 
*        |        NMOS        |   n18  |   n33  |
*        *--------------------------------------*
*        |        PMOS        |   p18  |   p33  |
*        *--------------------------------------*
*   Vertical PNP BJT :
*        *-------------------------------------------------------* 
*        | P+/NWELL/PSUB BJT type        |   1.8V    |   3.3V    |
*        |=======================================================|
*        | Emitter Area: 5*5 um^2        |  pnp18a25 | pnp33a25  |
*        *-------------------------------------------------------* 
*   Vertical NPN BJT :
*        *-------------------------------------------------------* 
*        |  N+/PWELL/DeepNWELL BJT type  |   1.8V    |   3.3V    |
*        |=======================================================|
*        | Emitter Area: 5*5 um^2        | npn18a25  | npn33a25  |
*        *-------------------------------------------------------* 
*
***********************************************************************************
*                              1.8V CORE NMOS MODEL                               *
***********************************************************************************
.model n18 nmos
+LEVEL    = 49                  
*
* GENERAL PARAMETERS
*
+CALCACM  = 1
+LMIN     = 1.5E-7              LMAX     = 1.0E-5              WMIN     = 1.9E-7              
+WMAX     = 1.0E-4              TNOM     = 25.0                VERSION  = 3.24                
+TOX      = '3.87E-09+DTOX_N18' TOXM     = 3.87E-09            XJ       = 1.6000000E-07       
+NCH      = 3.8694000E+17       LLN      = 1.1205959           LWN      = 0.9200000           
+WLN      = 1.0599999           WWN      = 0.8768474           LINT     = 1.5757085E-08       
+LL       = 2.6352781E-16       LW       = -2.2625584E-16      LWL      = -2.0576711E-22      
+WINT     = -1.4450482E-09      WL       = -2.3664573E-16      WW       = -3.6409690E-14      
+WWL      = -4.0000000E-21      MOBMOD   = 1                   BINUNIT  = 2                   
+XL       = '1.8E-8+DXL_N18'    XW       = '0.00+DXW_N18'      DWG      = -5.9600000E-09      
+DWB      = 4.5000000E-09         
* DIODE PARAMETERS
+ACM      = 12                  LDIF     = 7.00E-08            HDIF     = 2.00E-07            
+RSH      = 7.08                RD       = 0                   RS       = 0                   
+RSC      = 1.7                 RDC      = 1.7                 
*
* THRESHOLD VOLTAGE PARAMETERS
*
+VTH0     = '0.39+DVTH_N18'     WVTH0    = -2.9709472E-08      PVTH0    = '5.0000000E-16+DPVTH0_N18'       
+K1       = 0.6801043           WK1      = -2.4896840E-08      PK1      = 1.3000000E-15       
+K2       = -4.9977830E-02      K3       = 10.0000000          DVT0     = 1.3000000           
+DVT1     = 0.5771635           DVT2     = -0.1717554          DVT0W    = 0.00                
+DVT1W    = 0.00                DVT2W    = 0.00                NLX      = 7.5451030E-08       
+W0       = 5.5820150E-07       K3B      = -3.0000000                 
*
* MOBILITY PARAMETERS
*
+VSAT     = 8.2500000E+04       PVSAT    = -8.3000000E-10      UA       = -1.0300000E-09      
+LUA      = 7.7349790E-19       PUA      = -1.0000000E-24      UB       = 2.3666682E-18       
+UC       = 1.2000000E-10       PUC      = 1.5000000E-24       RDSW     = 55.5497200          
+PRWB     = -0.2400000          PRWG     = 0.4000000           WR       = 1.0000000           
+U0       = 3.4000000E-02       LU0      = 2.3057663E-11       WU0      = -3.1009695E-09      
+A0       = 0.8300000           KETA     = -3.0000000E-03      LKETA    = -1.7000000E-09      
+A1       = 0.00                A2       = 0.9900000           AGS      = 0.3200000           
+B0       = 6.0000000E-08       B1       = 0.00                
*
* SUBTHRESHOLD CURRENT PARAMETERS
*
+VOFF     = -0.1030000          LVOFF    = -3.3000000E-09      NFACTOR  = 1.2500000           
+LNFACTOR = 4.5000000E-08       CIT      = 0.00                CDSC     = 0.00                
+CDSCB    = 0.00                CDSCD    = 1.0000000E-04       ETA0     = 2.8000001E-02       
+ETAB     = -2.7000001E-02      DSUB     = 0.4000000           
*
* ROUT PARAMETERS
*
+PCLM     = 1.2000000           PPCLM    = 2.9999999E-15       PDIBLC1  = 2.5000000E-02       
+PDIBLC2  = 3.8000000E-03       PPDIBLC2 = 2.7000001E-16       PDIBLCB  = 0.00                
+DROUT    = 0.5600000           PSCBE1   = 3.4500000E+08       PSCBE2   = 1.0000000E-06       
+PVAG     = 0.00                DELTA    = 1.0000000E-02       ALPHA0   = 1.7753978E-08       
+ALPHA1   = 0.1764000           LALPHA1  = 7.6250000E-09       BETA0    = 11.1683940  
*
* TEMPERATURE EFFECTS PARAMETERS
*
+KT1      = -0.2572866          KT2      = -4.0000000E-02      AT       = 3.7000000E+04       
+PAT      = -7.5000000E-10      UTE      = -1.5500000          UA1      = 1.7600000E-09       
+LUA1     = 6.0000000E-18       WUA1     = -1.1000000E-16      PUA1     = -5.0000000E-25      
+UB1      = -2.4000000E-18      UC1      = -1.0000000E-10      LUC1     = 1.6999999E-17       
+PUC1     = -3.0000000E-24      KT1L     = -1.0000000E-09      PRT      = -55.0000000       
*    
* NOISE PARAMETERS
*
+NOIMOD   = 2                   NOIA     = 8.2282E+19            NOIB     = 1.3327E+04    
+NOIC     = -2.4937E-14         EM       = 1.7767E+07            EF       = 8.1800E-01 
*
* CAPACITANCE PARAMETERS
*
+CJ       = '9.68E-04+DCJ_N18'     MJ       = 0.346                PB       = 0.7                   
+CJSW     = '7.95E-11+DCJSW_N18'   MJSW     = 0.538                PBSW     = 1                 
+CJSWG    = '4.18E-10+DCJSWG_N18'  MJSWG    = 0.538                PBSWG    = 1
+TCJ      = 8.42E-04               TCJSW    = 6.69E-04             TCJSWG   = 6.69E-04      
+TPB      = 1.47E-03               TPBSW    = 8.68E-04             TPBSWG   = 8.68E-04
+JS       = 3.52E-07               JSW      = 3.0E-13              NJ       = 1.0392 
+XTI      = 3.25                   NQSMOD   = 0                    ELM      = 5
+CGDO     = '3.70E-10+DCGDO_N18'   CGSO     = '3.70E-10+DCGSO_N18' TLEVC    = 1            
+CAPMOD   = 3                      XPART    = 1                    CF       = 0.00                   
+ACDE     = 0.64                   MOIN     = 24                   NOFF     = 1.2025                 
+DLC      = 8.5E-09                DWC      = 4.5E-08
*
***********************************************************************************
*                              1.8V CORE PMOS MODEL                               *
***********************************************************************************
*
.model p18 pmos
+LEVEL    = 49                  
*
* GENERAL PARAMETERS
*
+CALCACM  = 1
+LMIN     = 1.5E-7              LMAX     = 1.0E-5              WMIN     = 1.9E-7              
+WMAX     = 1.0E-4              TNOM     = 25.0                VERSION  = 3.24                
+TOX      = '3.74E-09+DTOX_P18' TOXM     = 3.74E-09            XJ       = 1.7000001E-07       
+NCH      = 5.5000000E+17       LLN      = 1.0000000           LWN      = 1.0000000           
+WLN      = 1.0450000           WWN      = 1.0000000           LINT     = 1.0000000E-08       
+LL       = 3.4000000E-15       LW       = -3.3600000E-16      LWL      = 0.00                
+WINT     = 8.0000010E-09       WL       = 3.5904200E-15       WW       = -1.8999999E-15      
+WWL      = -1.1205000E-21      MOBMOD   = 1                   BINUNIT  = 2                   
+XL       = '-5.7E-09+DXL_P18'  XW       = '0.00+DXW_P18'      DWG      = -1.7361970E-08          
+DWB      = 2.0000000E-08       
* DIODE PARAMETERS
+ACM      = 12                  LDIF     = 7.00E-08            HDIF     = 2.00E-07            
+RSH      = 7.83                RD       = 0                   RS       = 0                   
+RSC      = 1.5                 RDC      = 1.5                 
*
* THRESHOLD VOLTAGE PARAMETERS
*
+VTH0     = '-0.402+DVTH_P18'   WVTH0    = 1.2675420E-08       PVTH0    = '-1.2500000E-15+DPVTH0_P18'      
+K1       = 0.5872390           LK1      = 3.5532110E-09       K2       = 7.0906860E-03       
+K3       = 2.5999999           DVT0     = 0.7194931           DVT1     = 0.2467441           
+DVT2     = 7.8089680E-02       DVT0W    = 0.00                DVT1W    = 8.0000000E+05       
+DVT2W    = 0.00                NLX      = 9.0000000E-08       W0       = 0.00                
+K3B      = 2.4862001           NGATE    = 3.1680000E+20               
*
* MOBILITY PARAMETERS
*
+VSAT     = 1.0000000E+05       UA       = 2.8500000E-10       LUA      = 5.5000000E-18       
+PUA      = -2.0000000E-24      UB       = 1.0000000E-18       UC       = -4.7700000E-11      
+WUC      = 3.1668000E-17       PUC      = -2.5000000E-24      RDSW     = 4.5500000E+02       
+PRWB     = -0.4000000          PRWG     = 0.00                WR       = 1.0000000           
+U0       = 8.6610000E-03       LU0      = -2.0000000E-11      WU0      = 1.3815350E-10       
+A0       = 1.0000000           KETA     = 2.0000000E-02       LKETA    = -8.5000000E-09      
+PKETA    = 5.0000000E-16       A1       = 0.00                A2       = 0.9900000           
+AGS      = 0.2000000           B0       = 6.3000000E-08       B1       = 0.00                
*
* SUBTHRESHOLD CURRENT PARAMETERS
*
+VOFF     = -9.5000000E-02      LVOFF    = -1.7000000E-09      WVOFF    = -1.9999999E-09      
+PVOFF    = -1.0000000E-16      NFACTOR  = 0.9000000           LNFACTOR = 1.0000000E-07       
+PNFACTOR = -5.0000000E-15      CIT      = 0.00                CDSC     = 0.00                
+CDSCB    = 0.00                CDSCD    = 0.00                ETA0     = 4.0000000E-02       
+ETAB     = -2.5000000E-02      DSUB     = 0.5600000           
*
* ROUT PARAMETERS
*
+PCLM     = 0.7000000           PDIBLC1  = 0.00                PDIBLC2  = 7.0000000E-03       
+PDIBLCB  = 0.00                DROUT    = 0.5600000           PSCBE1   = 4.0000000E+08       
+PSCBE2   = 1.0000000E-07       PVAG     = 0.00                DELTA    = 1.0000000E-02       
+ALPHA0   = 7.0000000E-08       ALPHA1   = 7.0491700           BETA0    = 22.8424000          
+LBETA0   = -7.5000000E-08         
*
* TEMPERATURE EFFECTS PARAMETERS
*
+KT1      = -0.2577007          KT2      = -3.0979900E-02      LKT2     = -3.0000000E-09      
+PKT2     = -6.5331750E-16      AT       = 1.0000000E+04       PAT      = -1.0000000E-09      
+UTE      = -1.2703574          UA1      = 5.3866300E-10       WUA1     = 1.1000000E-16       
+PUA1     = -2.3700001E-24      UB1      = -2.0709999E-18      UC1      = 2.0609721E-11       
+KT1L     = -8.0000000E-09      PRT      = 90.0000000          
*    
* NOISE PARAMETERS
*
+NOIMOD   = 2                   NOIA     = 3.3617E+18            NOIB     = 1.9536E+05    
+NOIC     = 5.2658E-12          EM       = 6.2548E+07            EF       = 1.1307E+00 
*
* CAPACITANCE PARAMETERS
*
+CJ       = '0.00107+DCJ_P18'       MJ       = 0.415                 PB       = 0.817                   
+CJSW     = '9.89E-11+DCJSW_P18'    MJSW     = 0.489                 PBSW     = 1               
+CJSWG    = '5.07E-10+DCJSWG_P18'   MJSWG    = 0.489                 PBSWG    = 1       
+TPB      = 0.00153                 TPBSW    = 0.00117               TPBSWG   = 0.00117
+TCJ      = 0.000876                TCJSW    = 0.000745              TCJSWG   = 0.000745
+JS       = 1.66E-07                JSW      = 1.2E-13               NJ       = 1.0384   
+XTI      = 4.5                     NQSMOD   = 0                     ELM      = 5 
+CGDO     = '4.20E-10+DCGDO_P18'    CGSO     = '4.20E-10+DCGSO_P18'  TLEVC    = 1            
+CAPMOD   = 3                       XPART    = 1                     CF       = 0.00                                    
+ACDE     = 0.8505076               MOIN     = 14.95341              NOFF     = 1.431824              
+DLC      = -1.5E-09
*  
***********************************************************************************
*                               3.3V IO NMOS MODEL                                *
***********************************************************************************
*
.model n33 nmos
+LEVEL    = 49                  
*
* GENERAL PARAMETERS
*
+CALCACM  = 1
+LMIN     = 3.0E-7              LMAX     = 1.0E-5              WMIN     = 1.9E-7              
+WMAX     = 1.0E-4              TNOM     = 25.0                VERSION  = 3.24                
+TOX      = '6.65E-09+DTOX_N33' TOXM     = 6.65E-09            XJ       = 1.6000000E-07       
+NCH      = 4.3441000E+17       LLN      = 1.0625758           LWN      = 1.0101005           
+WLN      = 0.9810000           WWN      = 0.9060000           LINT     = 6.3891300E-08       
+LL       = -2.3305548E-15      LW       = -2.4634918E-15      LWL      = 2.6243002E-24       
+WINT     = 3.5850000E-08       WL       = -1.8902563E-15      WW       = -1.3000000E-14      
+WWL      = -1.3027796E-20      MOBMOD   = 1                   BINUNIT  = 2                   
+XL       = '1E-8+DXL_N33'      XW       = '0.00+DXW_N33'      DWG      = -3.9100000E-09                  
+DWB      = 3.2000000E-09       
* DIODE PARAMETERS
+ACM      = 12                  LDIF     = 6.50E-08            HDIF     = 2.05E-07            
+RSH      = 7.08                RD       = 0                   RS       = 0                   
+RSC      = 1.6                 RDC      = 1.6                 
*
* THRESHOLD VOLTAGE PARAMETERS
*
+VTH0     = '0.695+DVTH_N33'    LVTH0    = 4.0100000E-10       WVTH0    = 1.0200000E-08       
+PVTH0    = '8.0000000E-16+DPVTH0_N33'       K1       = 0.8451000           LK1      = 5.8182560E-10       
+WK1      = -6.2456240E-09      PK1      = 1.9938927E-15       K2       = 4.4575000E-02       
+K3       = -3.8500000          DVT0     = 9.4991400           LDVT0    = 8.0839730E-09       
+DVT1     = 0.6300000           LDVT1    = 5.5000000E-08       DVT2     = -0.1450000          
+DVT0W    = 0.00                DVT1W    = 0.1057000           DVT2W    = 0.00                
+NLX      = 2.0274594E-07       LNLX     = -2.8608589E-14      W0       = 0.00                
+K3B      = 0.5669292           NGATE    = 2.6812141E+21                 
*
* MOBILITY PARAMETERS
*
+VSAT     = 8.5000000E+04       LVSAT    = -1.7300000E-03      PVSAT    = 1.2000000E-10       
+UA       = -8.6001130E-10      UB       = 2.3000001E-18       UC       = 1.3100000E-10       
+PUC      = 5.0000000E-25       RDSW     = 2.4208382E+02       PRWB     = -8.5000000E-02      
+PRWG     = 3.8000000E-02       WR       = 1.0000000           U0       = 3.5000000E-02       
+LU0      = 5.0000000E-10       A0       = 1.0200000           LA0      = -1.2000000E-07      
+KETA     = 0.00                LKETA    = -1.4000000E-08      WKETA    = -1.9999999E-09      
+PKETA    = 1.0000000E-15       A1       = 0.00                A2       = 0.9900000           
+AGS      = 0.1700000           B0       = 1.0000000E-08       B1       = 0.00                
*
* SUBTHRESHOLD CURRENT PARAMETERS
*
+VOFF     = -0.1200000          NFACTOR  = 1.1000000           LNFACTOR = 4.0000000E-08       
+PNFACTOR = -1.4000000E-14      CIT      = 1.0000000E-04       CDSC     = 5.0000000E-04       
+CDSCB    = 0.00                CDSCD    = 0.00                ETA0     = 4.0000000E-02       
+PETA0    = 3.0000001E-16       ETAB     = -0.1000000          DSUB     = 0.6000000           
*
* ROUT PARAMETERS
*
+PCLM     = 0.8000000           LPCLM    = 5.0000000E-08       PPCLM    = 8.0000000E-15       
+PDIBLC1  = 9.0000000E-02       PDIBLC2  = 1.6000000E-03       PPDIBLC2 = -7.0000000E-17      
+PDIBLCB  = 0.00                DROUT    = 0.5987002           PSCBE1   = 3.4000000E+08       
+LPSCBE1  = 13.0000000          PSCBE2   = 3.8000000E-06       PVAG     = 0.00                
+DELTA    = 1.0000000E-02       ALPHA0   = -4.4760000E-08      ALPHA1   = 0.8998877           
+BETA0    = 18.8771250          LBETA0   = -5.7118000E-07
*
* TEMPERATURE EFFECTS PARAMETERS
*
+KT1      = -0.3250000          PKT1     = -2.3708420E-15      KT2      = -3.6844640E-02      
+AT       = 2.2000000E+04       UTE      = -1.4100000          UA1      = 2.0599999E-09       
+WUA1     = -1.2600000E-16      PUA1     = -1.0000000E-24      UB1      = -2.5000000E-18      
+WUB1     = 1.1000000E-25       UC1      = -1.1000000E-10      LUC1     = 1.6999999E-17       
+KT1L     = -5.0000000E-09      PRT      = 40.0000000          
*    
* NOISE PARAMETERS
*
+NOIMOD   = 2                   NOIA     = 1.5500E+20            NOIB     = 7.1866E+04    
+NOIC     = 1.4952E-13          EM       = 3.2163E+07            EF       = 9.9600E-01 
*
* CAPACITANCE PARAMETERS
*
+CJ       = '0.000845+DCJ_N33'     MJ       = 0.321                PB       = 0.708               
+CJSW     = '9.15E-11+DCJSW_N33'   MJSW     = 0.447                PBSW     = 1                   
+CJSWG    = '3.41E-10+DCJSWG_N33'  MJSWG    = 0.447                PBSWG    = 1                   
+TPB      = 0.00166                TPBSW    = 0.00162              TPBSWG   = 0.00162     
+TCJ      = 0.000897               TCJSW    = 0.000695             TCJSWG   = 0.000695
+JS       = 3.65E-07               JSW      = 3.0E-13              NJ       = 1.04                 
+XTI      = 3.9                    NQSMOD   = 0                    ELM      = 5 
+CGDO     = '3.86E-10+DCGDO_N33'   CGSO     = '3.86E-10+DCGSO_N33' TLEVC    = 1 
+CAPMOD   = 3                      XPART    = 1                    CF       = 0.00                  
+ACDE     = 0.45                   MOIN     = 24                   NOFF     = 2.3177            
+DLC      = 6.50E-08
*
***********************************************************************************
*                             3.3V IO PMOS MODEL                                  *
***********************************************************************************
*
.model p33 pmos
+LEVEL    = 49                  
*
* GENERAL PARAMETERS
*
+CALCACM  = 1
+LMIN     = 2.6E-7              LMAX     = 1.0E-5              WMIN     = 1.9E-7              
+WMAX     = 1.0E-4              TNOM     = 25.0                VERSION  = 3.24                
+TOX      = '6.62E-09+DTOX_P33' TOXM     = 6.62E-09            XJ       = 1.7000001E-07       
+NCH      = 5.4852000E+17       LLN      = 1.0471729           LWN      = 0.9530895           
+WLN      = 1.0257638           WWN      = 0.9617700           LINT     = 3.5000000E-08       
+LL       = 5.5000000E-15       LW       = -4.7160380E-14      LWL      = 7.0054450E-22       
+WINT     = 1.3000000E-08       WL       = -3.1491245E-14      WW       = 2.3000000E-15       
+WWL      = -2.4167156E-22      MOBMOD   = 1                   BINUNIT  = 2                   
+XL       = '-1.70E-08+DXL_P33' XW       = '0.00+DXW_P33'      DWG      = 0.00                   
+DWB      = 8.6000000E-09                                 
* DIODE PARAMETERS
+ACM      = 12                  LDIF     = 6.50E-08            HDIF     = 2.05E-07            
+RSH      = 9.8                 RD       = 0                   RS       = 0                   
+RSC      = 1                   RDC      = 1                   
*
* THRESHOLD VOLTAGE PARAMETERS
*
+VTH0     = '-0.672+DVTH_P33'   WVTH0    = 4.0000000E-09       PVTH0    = '6.0000000E-15+DPVTH0_P33'       
+K1       = 0.9145741           PK1      = -1.7000000E-14      K2       = 4.1276220E-02       
+K3       = 0.1293833           DVT0     = 1.8000000           DVT1     = 0.7100000           
+DVT2     = -7.0000000E-02      DVT0W    = 0.00                DVT1W    = 0.00                
+DVT2W    = 0.00                NLX      = 1.2000000E-08       W0       = 1.0021131E-09       
+K3B      = 0.4000000           NGATE    = 1.1600000E+20               
*
* MOBILITY PARAMETERS
*
+VSAT     = 8.5500000E+04       PVSAT    = -5.8000000E-09      UA       = 3.1500000E-10       
+LUA      = 1.5000001E-17       WUA      = -1.6763224E-16      PUA      = -1.1000000E-23      
+UB       = 1.0444180E-18       LUB      = -7.0000000E-27      UC       = -3.5000000E-11      
+LUC      = 4.0000000E-18       PUC      = 5.0000000E-24       RDSW     = 9.5000000E+02       
+PRWB     = 0.00                PRWG     = 6.3755660E-03       WR       = 1.0000000           
+U0       = 9.2500000E-03       LU0      = -4.1500680E-10      WU0      = -1.7001526E-12      
+PU0      = -3.7999640E-16      A0       = 0.8500000           KETA     = 1.5000000E-02       
+LKETA    = -1.0000000E-08      WKETA    = 1.0000000E-09       PKETA    = -6.0000000E-15      
+A1       = 0.00                A2       = 0.9900000           AGS      = 4.0000000E-02       
+B0       = 4.6000000E-08       B1       = 0.00                
*
* SUBTHRESHOLD CURRENT PARAMETERS
*
+VOFF     = -0.1000000          LVOFF    = 1.8000000E-09       PVOFF    = -2.9999999E-15      
+NFACTOR  = 1.1000000           PNFACTOR = -4.0000000E-14      CIT      = 1.9999999E-04       
+CDSC     = 4.5263850E-05       CDSCB    = 0.00                CDSCD    = 0.00                
+ETA0     = 5.0000000E-03       PETA0    = 7.0000000E-15       ETAB     = -1.5000000E-02      
+PETAB    = -2.0000000E-15      DSUB     = 0.5800000           
*
* ROUT PARAMETERS
*
+PCLM     = 0.6000000           PPCLM    = 1.3000000E-13       PDIBLC1  = 6.0000000E-03       
+PDIBLC2  = 2.5000001E-04       WPDIBLC2 = 8.0000000E-11       PDIBLCB  = 0.00                
+DROUT    = 0.5600000           PSCBE1   = 3.3000000E+08       PPSCBE1  = -7.0000000E-06      
+PSCBE2   = 2.0000000E-07       PVAG     = 0.00                DELTA    = 8.0000000E-03       
+PDELTA   = 4.0000000E-16       ALPHA0   = 1.3410400E-06       ALPHA1   = 5.6136910E-02       
+BETA0    = 27.5998000          
*
* TEMPERATURE EFFECTS PARAMETERS
*
+KT1      = -0.3840900          WKT1     = -9.4333370E-10      PKT1     = 4.9999980E-15       
+KT2      = -4.1563480E-02      AT       = -2.0000000E+03      PAT      = -7.5000000E-09      
+UTE      = -1.3236057          UA1      = 3.0000002E-10       WUA1     = 8.0000000E-18       
+PUA1     = 1.0000000E-23       UB1      = -2.0704662E-18      WUB1     = 1.4000000E-25       
+UC1      = -5.0000000E-11      KT1L     = -6.0000000E-09      PRT      = 1.3000000E+02
*    
* NOISE PARAMETERS
*
+NOIMOD   = 2                   NOIA     = 3.5911E+19            NOIB     = 3.0215E+03    
+NOIC     = 6.7064E-12          EM       = 4.2400E+07            EF       = 1.0829E+00 
*
* CAPACITANCE PARAMETERS
*
+CJ       = '0.00101+DCJ_P33'      MJ       = 0.401                PB       = 0.807                
+CJSW     = '8.96E-11+DCJSW_P33'   MJSW     = 0.45                 PBSW     = 1                 
+CJSWG    = '3.19E-10+DCJSWG_P33'  MJSWG    = 0.45                 PBSWG    = 1   
+TPB      = 0.00157                TPBSW    = 0.00137              TPBSWG   = 0.00137
+TCJ      = 0.000883               TCJSW    = 0.000709             TCJSWG   = 0.000709
+JS       = 1.68E-07               JSW      = 4.0E-13              NJ       = 1.07                 
+XTI      = 3.0                    NQSMOD   = 0                    ELM      = 5 
+CGDO     = '3.23E-10+DCGDO_P33'   CGSO     = '3.23E-10+DCGSO_P33' TLEVC    = 1             
+CAPMOD   = 3                      XPART    = 1                    CF       = 0.00                                   
+ACDE     = 0.55                   MOIN     = 15                   NOFF     = 0.565                
+DLC      = 7.0E-09                DWC      = 6.0E-8 
*
***********************************************************************************
*       1.8V Vertical P+/NWELL/PSUB BIPOLAR MODEL (Emitter Area=5x5um^2)          *
***********************************************************************************
*                  
.model pnp18a25 pnp

+LEVEL    = 1

+VAF      = 553.93              IKF      = 1.30E-03            
+ISE      = 4.80E-17            NE       = 1.5                 BR       = 3.75E-03            
+NR       = 1.0                 VAR      = 25.0                IKR      = 2.09E-03            
+ISC      = 5.50E-17            NC       = 1.5                 RB       = 70.398              
+IRB      = 8.00E-04            RBM      = 2.0                 RE       = 1.9166              
+RC       = 17.11               XTI      = 3.0                 EG       = 1.16                
+TREF     = 25.0                NKF      = 0.5                 TLEV     = 0                   
+TLEVC    = 1                   XTB      = 0.00                TBF1     = 0.0051              
+TBR1     = 0.001               TIKF1    = -0.004              TNF1     = -0.0001             
+CTC      = 2E-3                CTE      = 8.76E-4             TVJC     = 2.53E-3
+VJE      = 0.817               MJE      = 0.415               SUBS     = 1
+VJC      = 0.494               MJC      = 0.317               
+TVJE     = 1.53E-3                               
+IS       = '3.10E-18+DIS_PNP18A25'  
+BF       = '3.244+DBF_PNP18A25'                
+NF       = '1.0+DNF_PNP18A25'
+CJC      = '1.75E-14+DCJC_PNP18A25' 
+CJE      = '2.68E-14+DCJE_PNP18A25' 
*
***********************************************************************************
*         3.3V Vertival P+/NWELL/PSUB BIPOLAR MODEL (Emitter Area=5x5um^2)        *
***********************************************************************************
*                  
.model pnp33a25 pnp

+LEVEL    = 1

+VAF      = 553.93              IKF      = 1.30E-03            
+ISE      = 4.80E-17            NE       = 1.5                 BR       = 3.65E-03            
+NR       = 1.0                 VAR      = 25.0                IKR      = 2.09E-03            
+ISC      = 5.50E-17            NC       = 1.5                 RB       = 70.398              
+IRB      = 8.00E-04            RBM      = 2.0                 RE       = 1.9166              
+RC       = 17.11               XTI      = 3.0                 EG       = 1.16                
+TREF     = 25.0                NKF      = 0.5                 TLEV     = 0                   
+TLEVC    = 1                   XTB      = 0.00                TBF1     = 0.0051              
+TBR1     = 0.001               TIKF1    = -0.004              TNF1     = -0.0001             
+CTC      = 2E-3                CTE      = 8.83E-4             TVJC     = 2.53E-3
+VJE      = 0.807               MJE      = 0.401               SUBS     = 1
+VJC      = 0.494               MJC      = 0.317               TBF2     = 2.5E-6
+TVJE     = 1.57E-3                               
+IS       = '3.10E-18+DIS_PNP33A25'  
+BF       = '3.10+DBF_PNP33A25'                
+NF       = '1.0+DNF_PNP33A25'
+CJC      = '1.75E-14+DCJC_PNP33A25' 
+CJE      = '2.525E-14+DCJE_PNP33A25' 
*
***********************************************************************************
*       1.8V Vertical N+/BPWELL/DNWELL BIPOLAR MODEL (Emitter Area=5x5um^2)       *
***********************************************************************************
*                  
.model npn18a25 npn

+LEVEL    = 1                  
              
+VAF      = 37.0                IKF      = 8.80E-03            
+ISE      = 3.60E-16            NE       = 1.49                BR       = 0.79                
+NR       = 1.004               VAR      = 21.782              IKR      = 1.30E-03            
+ISC      = 9.00E-16            NC       = 1.4                 RB       = 170.0               
+IRB      = 2.00E-03            RBM      = 0.1                 RE       = 13.0                
+RC       = 18.0                XTI      = 3.0                 EG       = 1.16                
+TREF     = 25.0                NKF      = 0.5                 TLEV     = 0                   
+TLEVC    = 1                   SUBS     = 1                   TBF1     = 6.1E-03
+TBR1     = 8.50E-04            TIKF1    = -3.0E-03            TNE1     = 2.5E-04             
+CTC      = 1.2E-3              CTE      = 8.42E-4             TVJC     = 1.9E-3                   
+VJE      = 0.7                 MJE      = 0.346               
+VJC      = 0.693               MJC      = 0.343               
+TVJE     = 0.00147                                      
+IS       = '1.25E-17+DIS_NPN18A25'  
+BF       = '26.2+DBF_NPN18A25'                
+NF       = '1.0065+DNF_NPN18A25'
+CJC      = '6.48E-14+DCJC_NPN18A25' 
+CJE      = '2.42E-14+DCJE_NPN18A25' 
*
***********************************************************************************
*       3.3V Vertical N+/BPWELL/DNWELL BIPOLAR MODEL (Emitter Area=5x5um^2)       *
***********************************************************************************
*                  
.model npn33a25 npn

+LEVEL    = 1                  
             
+VAF      = 27.0                IKF      = 6.00E-03            
+ISE      = 2.00E-16            NE       = 1.45                BR       = 0.98                
+NR       = 0.999               VAR      = 20.0                IKR      = 1.00E-03            
+ISC      = 7.00E-16            NC       = 1.4                 RB       = 170.0               
+IRB      = 2.00E-03            RBM      = 0.1                 RE       = 13.0                
+RC       = 18.0                XTI      = 3.0                 EG       = 1.16                
+TREF     = 25.0                NKF      = 0.5                 TLEV     = 0                   
+TLEVC    = 1                   SUBS     = 1                   TBF1     = 6.1E-03             
+TBR1     = 8.50E-04            TIKF1    = -3.00E-03           TNE1     = 2.50E-04            
+CTC      = 1.2E-3              CTE      = 8.97E-4             TVJC     = 1.9E-3                  